INIT MASTER(S)
NASTRAN SYSTEM(442)=-1,SYSTEM(319)=1
ID Assembly,FEMAP
SOL SESTATIC
CEND
  TITLE = Glued Contact
  ECHO = NONE
  DISPLACEMENT(PLOT) = ALL
  SPCFORCE(PLOT) = ALL
  OLOAD(PLOT) = ALL
  FORCE(PLOT,CORNER) = ALL
  STRESS(PLOT,CORNER) = ALL
  BCRESULTS(TRACTION,FORCE,SEPDIS,PLOT) = ALL
  SPC = 1
  BCSET = 108
  LOAD = 1
BEGIN BULK
$ ***************************************************************************
$   Written by : Femap
$   Version    : 2512.0
$   Translator : Simcenter Nastran
$   From Model : D:\soft\Femap 2512\Examples\Assembly_done.modfem
$   Date       : Thu Mar 12 18:12:20 2026
$   Output To  : D:\soft\Femap 2512\Examples\
$ ***************************************************************************
$
PARAM,PRGPST,NO
PARAM,POST,-1
PARAM,OGEOM,NO
PARAM,AUTOSPC,YES
PARAM,K6ROT,100.
PARAM,GRDPNT,0
CORD2C         1       0      0.      0.      0.      0.      0.      1.+FEMAPC1
+FEMAPC1      1.      0.      1.        
CORD2S         2       0      0.      0.      0.      0.      0.      1.+FEMAPC2
+FEMAPC2      1.      0.      1.        
$ Femap Coordinate System 3 : Constraint on Planar Surface 41
CORD2R         3       0      0.      0.-.624999      0.     -1.-.624999+       
+             0.      0.  -1.625        
$ Femap Coordinate System 4 : Constraint on Planar Surface 42
CORD2R         4       0      0.      0..6249988      0.     -1..6249988+       
+             0.      0.-.375001        
$ Femap Load Set 1 : Normal Face
FORCE          1   17625       0      1.-.351598  -.1458      0.
FORCE          1   17646       0      1.-.329108-.136474      0.
FORCE          1   17783       0      1.-.450161-.186672      0.
FORCE          1   17786       0      1. -.44622-.185037      0.
FORCE          1   17797       0      1.-.305796-.126807      0.
FORCE          1   17800       0      1.-.360632-.149546      0.
FORCE          1   17889       0      1.-.344036-.142664      0.
FORCE          1   17891       0      1.-.239868-.099468      0.
FORCE          1   17919       0      1. -.39597  -.1642      0.
FORCE          1   17923       0      1.-.378523-.156965      0.
FORCE          1   18429       0      1.-.310728-.128852      0.
FORCE          1   18455       0      1.-.433553-.179784      0.
FORCE          1   18458       0      1.-.379796-.157493      0.
FORCE          1   18461       0      1.-.317925-.131836      0.
FORCE          1   18465       0      1.-.339688-.140861      0.
FORCE          1   18470       0      1.-.401377-.166442      0.
FORCE          1   18614       0      1.-.470651-.195168      0.
FORCE          1   18662       0      1.-.242383-.100511      0.
FORCE          1   18664       0      1.-.361691-.149985      0.
FORCE          1   18693       0      1.-.392619 -.16281      0.
$ ... 113 like lines cut
$ Femap Constraint Set 1 : Pinned
SPC1           1     123       1
SPC1           1     123       2
SPC1           1     123       3
SPC1           1     123       4
SPC1           1     123       5
SPC1           1     123       6
SPC1           1     123       7
SPC1           1     123       8
SPC1           1     123       9
SPC1           1     123      10
SPC1           1     123      11
SPC1           1     123      12
SPC1           1     123      13
SPC1           1     123      14
SPC1           1     123      15
SPC1           1     123      16
SPC1           1     123      17
SPC1           1     123      18
SPC1           1     123      19
SPC1           1     123      20
$ ... 238 like lines cut
$ Femap Property 1 : SOLID Property
PSOLID         1       1       0        
$ Femap Material 1 : AISI 4340 Steel
MAT1           1   2.9+7             .327.3315-4   6.6-6     70.        +       
+        215000. 240000. 156000.
MAT4           14.8611-4   38.647.3315-4                        
GRID           1       02.162496   -.125.2499995       0
GRID           2       02.089023-.101127.2499995       0
GRID           3       02.043614-.038627.2499995       0
GRID           4       02.043614 .038627.2499995       0
GRID           5       02.089023.1011269.2499995       0
GRID           6       02.162496.1249998.2499995       0
GRID           7       02.162496.1249998.3124994       0
GRID           8       02.162496.1249998.3749993       0
GRID           9       02.089023.1011269.3749993       0
GRID          10       02.043614 .038627.3749993       0
GRID          11       02.043614-.038627.3749993       0
GRID          12       02.089023-.101127.3749993       0
GRID          13       02.162496   -.125.3749993       0
GRID          14       02.162496   -.125.3124994       0
GRID          15       02.089023-.101127.3124994       0
GRID          16       02.043614-.038627.3124994       0
GRID          17       02.043614 .038627.3124994       0
GRID          18       02.089023.1011269.3124994       0
GRID          19       02.162496   -.125-.374999       0
GRID          20       02.089023-.101127-.374999       0
$ ... 24799 like lines cut
CTETRA      4893       1    2443    2444    2445    2446    8317    8318+       
+           8319    8320    8321    8322
CTETRA      4894       1    2443    2446    2445    2447    8320    8322+       
+           8319    8323    8324    8325
CTETRA      4895       1     954    2446    2443    2448    8326    8320+       
+           8327    8328    8329    8330
CTETRA      4896       1     954    2446    2448    2449    8326    8329+       
+           8328    8331    8332    8333
CTETRA      4897       1    2445    2450    2446    2451    8334    8335+       
+           8322    8336    8337    8338
CTETRA      4898       1    2452    2453    2454    2455    8339    8340+       
+           8341    8342    8343    8344
CTETRA      4899       1    2446    2456    2451    2457    8345    8346+       
+           8338    8347    8348    8349
CTETRA      4900       1    2446    2449    2456    2457    8332    8350+       
+           8345    8347    8351    8348
CTETRA      4901       1    2458    2459    2460    2461    8352    8353+       
+           8354    8355    8356    8357
CTETRA      4902       1    2461    2463    2462    2464    8358    8359+       
+           8360    8361    8362    8363
CTETRA      4903       1      71      72    2465    2466    3399    8364+       
+           8365    8366    8367    8368
CTETRA      4904       1    2461    2462    2463    2467    8360    8359+       
+           8358    8369    8370    8371
CTETRA      4905       1    2463    2468    2467    2469    8372    8373+       
+           8371    8374    8375    8376
CTETRA      4906       1    2460    2461    2470    2471    8357    8377+       
+           8378    8379    8380    8381
CTETRA      4907       1    2461    2467    2468    2471    8369    8373+       
+           8382    8380    8383    8384
CTETRA      4908       1    2472    2473    2474    2475    8385    8386+       
+           8387    8388    8389    8390
CTETRA      4909       1    2468    2474    2473    2475    8391    8386+       
+           8392    8393    8390    8389
CTETRA      4910       1    2473    2475    2476    2477    8389    8394+       
+           8395    8396    8397    8398
CTETRA      4911       1    2454    2468    2473    2478    8399    8392+       
+           8400    8401    8402    8403
CTETRA      4912       1    2468    2475    2473    2477    8393    8389+       
+           8392    8404    8397    8396
$ ... 29486 like lines cut
$ Femap Region 1 : Untitled
BCRPARA        1              0.                
BSURFS         1                            4978      42      43    1019+       
+           5145      49    1022    1015    5460    1020    1022    1023+       
+           5679    1013    1019    1021    5823    1013    1021    1023+       
+           6620      43      44    1017    7967    1018    1020    1019+       
+           8321    1019    1020    1021    8356      48      49    1015+       
+           8639    1020    1023    1021    9828    1015    1022    1020+       
+           9905      43    1018    1019   10800      37    1014    1023+       
+          11377      37    1023      50   11379      49      50    1023+       
+          11380      49    1023    1022   11775    1016    1020    1017+       
+          11980    1012    1019    1013   12096    1013    1023    1014+       
+          12627      41    1019    1012   12812    1017    1020    1018+       
+          12815    1015    1020    1016   12989      41      42    1019+       
+          13053      43    1017    1018    5310      63      76      64+       
+           5999      58      70      71    6431      66      74      67+       
+           7594      70      74      71    8841      72      74      75+       
+           8844      71      74      72    8868      62      73      76+       
+          10463      66      76      75   10465      72      76      73+       
+          10469      60      73      62   10667      67      74      68+       
+          11054      64      76      65   11058      66      75      74+       
+          11059      65      76      66   11641      57      70      58+       
+          11693      72      75      76   11885      69      74      70+       
$ ... 27 like lines cut
+          14358      42      53      56                                
$ Femap Region 2 : Untitled
BCRPARA        2              0.                
BSURFS         2                           19197    2325    2400    2401+       
+          19199    2398    2412    2413   19212    2392    2410    2424+       
+          19213    2392    2424    2438   19215    2329    2330    2396+       
+          19221    2317    2408    2409   19227    2411    2426    2412+       
+          19233    2323    2403    2404   19234    2323    2402    2403+       
+          19243    2317    2409    2410   19259    2319    2406    2407+       
+          19274    2320    2321    2406   19279    2392    2438    2393+       
+          19280    2311    2438    2348   19281    2409    2423    2410+       
+          19282    2391    2410    2392   19286    2321    2404    2405+       
+          19288    2421    2434    2435   19289    2419    2433    2434+       
+          19294    2406    2420    2421   19299    2336    2337    2426+       
+          19305    2321    2322    2404   19307    2322    2323    2404+       
+          19316    2423    2438    2424   19321    2412    2426    2413+       
+          19324    2323    2324    2402   19326    2404    2417    2418+       
+          19333    2317    2318    2408   19335    2406    2421    2407+       
+          19338    2410    2423    2424   19343    2311    2393    2438+       
+          19349    2404    2418    2419   19353    2403    2417    2404+       
+          19358    2327    2328    2398   19360    2337    2427    2426+       
+          19363    2405    2419    2406   19372    2402    2416    2417+       
+          19394    2347    2348    2438   19408    2400    2413    2414+       
+          19428    2400    2414    2415   19440    2402    2417    2403+       
$ ... 99 like lines cut
+          19654    2338    2382    2379                                
$ Femap Region 3 : Untitled
BCRPARA        3              0.                
BSURFS         3                           14750    1685    1686    1738+       
+          15799    2305    2310    1760   16022    1695    2310    2309+       
+          16041    1761    2305    1760   16063    2301    2306    2307+       
+          16072    1676    1760    1695   16094    1693    1694    2309+       
+          16190    1694    1695    2309   16217    1682    1683    2299+       
+          16317    1681    2299    2300   16396    2302    2307    2303+       
+          16470    2297    2301    2302   16507    2303    2307    2308+       
+          16589    2301    2307    2302   16608    2296    2301    2297+       
+          16818    1739    2301    1738   16850    1691    2306    1740+       
+          16948    1691    1692    2307   16951    1685    1738    2296+       
+          16954    1740    2306    2301   17394    1740    2301    1739+       
+          17423    1690    1691    1740   17582    1685    2296    2297+       
+          17811    1738    2301    2296   17880    2299    2303    2304+       
+          18202    1683    2298    2299   18269    1693    2309    2308+       
+          18534    2298    2303    2299   18536    1681    1682    2299+       
+          18549    2303    2309    2304   18554    2304    2309    2305+       
+          18632    1762    2305    1761   18641    2305    2309    2310+       
+          18693    2299    2304    2305   18828    1683    2297    2298+       
+          18829    1681    2300    1762   18863    1693    2308    2307+       
+          18864    1692    1693    2307   18879    1691    2307    2306+       
+          19064    2303    2308    2309   19081    1684    1685    2297+       
$ ... 27 like lines cut
+          19143    1700    1703    1701                                
$ Femap Connection Property 1 : Untitled
BCTPARM      108  PENTYP       1 INIPENE       2  SHLTHK       0
$ Femap Connector 108 : Region 1-2
BCTSET       108       2       1      .1        4.384234                +       
+                      2       3      .1        4.384234                
ENDDATA 147347dc
